##CIF_1.1

data_sm_global
#Used dictionaries
loop_
_audit_conform_dict_name
_audit_conform_dict_version
_audit_conform_dict_location
cif_core.dic 	2.4.2 	.
cif_pd.dic 		1.0.1 	.
cif_sm.dic 		0.1 	'redaktion.landolt-boernstein(at)springer.com'

#About this content and reference
_sm_credits_copyright
;PAULING FILE Multinaries Edition - 2012. SpringerMaterials Release 2014.
http://www.paulingfile.com
Unique LPF ID Number SD1824498
Project Coordinator: Shuichi Iwata
Section-Editors: Karin Cenzual (Crystal Structures), Hiroaki Okamoto (Phase 
Diagrams), Fritz Hulliger (Physical Properties)
(c) Springer & Material Phases Data System (MPDS), Switzerland & National 
Institute for Materials Science (NIMS), Japan 2014.
(Data generated pre-2002: (c) Springer & MPDS & NIMS; 
post-2001: (c) Springer & MPDS)
All Rights Reserved. Version 2014.06.
;

_audit_creation_method
;This data have been compiled from the crystallographic datasheet for 
"LiNi0.8Co0.1Mn0.1O2 (LiMn0.33Co0.33Ni0.33O2) Crystal Structure" 
taken from SpringerMaterials (sm_isp_sd_1824498).
;

_publ_section_references
;Li L.J., Li X.H., Wang Z.X., Guo H.J., Yue P., Chen W., Wu L.: <i>Synthesis, structural and electrochemical properties of LiNi<sub>0.79</sub>Co<sub>0.1</sub>Mn<sub>0.1</sub>Cr<sub>0.01</sub>O<sub>2</sub> via fast co-precipitation</i>. Journal of Alloys and Compounds <b>507</b> (2010) 172-177.
;

#Phase classification
_sm_phase_labels				'LiMn0.33Co0.33Ni0.33O2'
_chemical_name_mineral			''
_sm_chemical_compound_class		'oxide'
_sm_phase_prototype				'NaFeO2 '
_sm_pearson_symbol				'hR12'
_symmetry_Int_Tables_number		166
_sm_sample_details
;sample prepared from NiCl<sub>2</sub>[H<sub>2</sub>O]<sub>6</sub>, MnCl<sub>2</sub>[H<sub>2</sub>O]<sub>4</sub>, CoCl<sub>2</sub>[H<sub>2</sub>O]<sub>6</sub>, LiOH[H<sub>2</sub>O], 
inductive coupled plasma method; Li/Ni/Co/Mn ratio 1.00/0.802/0.099/0.099, 
powder (determination of cell and structural parameters)
;
_sm_measurement_details
;automatic diffractometer (determination of cell parameters), 
automatic diffractometer; Rigaku RINT-2000 (determination of structural parameters), 
X-rays, Cu K&#x03b1; (determination of cell and structural parameters)
;
_sm_interpretation_details
;complete structure determined, 
Rietveld refinement, 
<i>R</i><sub>P</sub> = 0.074; <i>wR</i><sub>P</sub> = 0.106
;

data_sm_isp_SD1824498-standardized_unitcell
#Cell Parameters
_cell_length_a					2.8719
_cell_length_b					2.8719
_cell_length_c					14.1975
_cell_angle_alpha				90
_cell_angle_beta				90
_cell_angle_gamma				120
_sm_length_ratio_ab				1.000
_sm_length_ratio_bc				0.202
_sm_length_ratio_ca				4.944
_cell_volume 					101.4
_symmetry_space_group_name_H-M	'R-3m'
_symmetry_Int_Tables_number		166
_cell_formula_units_Z			3
_sm_cell_transformation
;origin shift 0 0 1/2
;

#Atom Coordinates
loop_
_atom_site_label
_atom_site_type_symbol
_atom_site_Wyckoff_symbol
_sm_site_symmetry
_atom_site_fract_x
_atom_site_fract_y
_atom_site_fract_z
_atom_site_occupancy
_sm_coordination_number
_sm_atomic_environment_type
O 'O' .6c .3m 0 0 0.241 1 6 'octahedron, Ni<sub>3</sub>Li<sub>3</sub>'
Ni,Co,Mn '0.802(5)Ni + 0.099Co + 0.099Mn' .3b .-3m 0 0 0.5 1 6 'octahedron, O<sub>6</sub>'
Li1Ni2 '0.932(4)Li + 0.068(4)Ni' .3a .-3m 0 0 0 1 6 'octahedron, O<sub>6</sub>'

_sm_atom_site_transformation
;origin shift 0 0 1/2
;

#Isotropic Displacement Parameters
loop_
_atom_site_label_1
_atom_site_B_iso_or_equiv
_sm_atom_site_isotropic_displacement_parameter_type
_atom_site_B_equiv_geom_mean
Li1Ni2 0.0081(5) 'Biso' ?
Ni,Co,Mn 0.0124(9) 'Biso' ?
O 0.008 'Biso' ?

data_sm_isp_SD1824498-published_cell
#Cell Parameters
_cell_length_a					2.87195(4)
_cell_length_b					2.87195(4)
_cell_length_c					14.19751(5)
_cell_angle_alpha				90
_cell_angle_beta				90
_cell_angle_gamma				120
_sm_length_ratio_ab				1.000
_sm_length_ratio_bc				0.202
_sm_length_ratio_ca				4.944
_cell_volume 					101.41
_symmetry_space_group_name_H-M	'R-3m'
_symmetry_Int_Tables_number		166
_cell_formula_units_Z			3

#Atom Coordinates
loop_
_atom_site_label
_atom_site_type_symbol
_atom_site_Wyckoff_symbol
_sm_site_symmetry
_atom_site_fract_x
_atom_site_fract_y
_atom_site_fract_z
_atom_site_occupancy
_sm_coordination_number
_sm_atomic_environment_type
Li1Ni2 '0.932(4)Li + 0.068(4)Ni' .3b .-3m 0 0 0.5 1 ? '?'
Ni,Co,Mn '0.802(5)Ni + 0.099Co + 0.099Mn' .3a .-3m 0 0 0 1 ? '?'
O 'O' .6c .3m 0 0 0.259(11) 1 ? '?'

#Isotropic Displacement Parameters
loop_
_atom_site_label_1
_atom_site_B_iso_or_equiv
_sm_atom_site_isotropic_displacement_parameter_type
_atom_site_B_equiv_geom_mean
Li1Ni2 0.0081(5) 'Biso' ?
Ni,Co,Mn 0.0124(9) 'Biso' ?
O 0.008 'Biso' ?

data_sm_isp_SD1824498-niggli_reduced_cell
#Cell Parameters
_cell_length_a					2.8719
_cell_length_b					2.8719
_cell_length_c					5.0146
_cell_angle_alpha				73.36
_cell_angle_beta				73.36
_cell_angle_gamma				60
_sm_length_ratio_ab				1.000
_sm_length_ratio_bc				0.573
_sm_length_ratio_ca				1.746
_cell_volume 					33.8
_symmetry_space_group_name_H-M	''
_symmetry_Int_Tables_number		?
_cell_formula_units_Z			3

#Atom Coordinates
loop_
_atom_site_label
_atom_site_type_symbol
_atom_site_Wyckoff_symbol
_sm_site_symmetry
_atom_site_fract_x
_atom_site_fract_y
_atom_site_fract_z
_atom_site_occupancy
_sm_coordination_number
_sm_atomic_environment_type
? ? ? ? ? ? ? ? ? ?

