data_NCA_LiVac2

_cell_length_a    2.86820
_cell_length_b    2.86820
_cell_length_c   14.19850
_cell_angle_alpha  90.00000
_cell_angle_beta   90.00000
_cell_angle_gamma 120.00000

_symmetry_space_group_name_H-M    'P 1'
_symmetry_Int_Tables_number       1

loop_
_symmetry_equiv_pos_as_xyz
  x,y,z

loop_
_atom_site_label
_atom_site_occupancy
_atom_site_fract_x
_atom_site_fract_y
_atom_site_fract_z
_atom_site_thermal_displace_type
_atom_site_B_iso_or_equiv
_atom_site_type_symbol
Li1   1.0000 0.00000  0.00000  0.08333  Biso  1.000  Li
Li2   0.0000 0.33333  0.66667  0.25000  Biso  1.000  Li
Li3   0.0000 0.66667  0.33333  0.41667  Biso  1.000  Li
Li4   1.0000 0.00000  0.00000  0.58333  Biso  1.000  Li
Li5   1.0000 0.33333  0.66667  0.75000  Biso  1.000  Li
Li6   1.0000 0.66667  0.33333  0.91667  Biso  1.000  Li
Ni1   0.8000 0.00000  0.00000  0.00000  Biso  1.000  Ni
Co1   0.1500 0.00000  0.00000  0.00000  Biso  1.000  Co
Al1   0.0500 0.00000  0.00000  0.00000  Biso  1.000  Al
Ni2   0.8000 0.33333  0.66667  0.16667  Biso  1.000  Ni
Co2   0.1500 0.33333  0.66667  0.16667  Biso  1.000  Co
Al2   0.0500 0.33333  0.66667  0.16667  Biso  1.000  Al
Ni3   0.8000 0.66667  0.33333  0.33333  Biso  1.000  Ni
Co3   0.1500 0.66667  0.33333  0.33333  Biso  1.000  Co
Al3   0.0500 0.66667  0.33333  0.33333  Biso  1.000  Al
Ni4   0.8000 0.00000  0.00000  0.50000  Biso  1.000  Ni
Co4   0.1500 0.00000  0.00000  0.50000  Biso  1.000  Co
Al4   0.0500 0.00000  0.00000  0.50000  Biso  1.000  Al
Ni5   0.8000 0.33333  0.66667  0.66667  Biso  1.000  Ni
Co5   0.1500 0.33333  0.66667  0.66667  Biso  1.000  Co
Al5   0.0500 0.33333  0.66667  0.66667  Biso  1.000  Al
Ni6   0.8000 0.66667  0.33333  0.83333  Biso  1.000  Ni
Co6   0.1500 0.66667  0.33333  0.83333  Biso  1.000  Co
Al6   0.0500 0.66667  0.33333  0.83333  Biso  1.000  Al
O1    1.0000 0.00000  0.00000  0.10980  Biso  1.000  O
O2    1.0000 0.33333  0.66667  0.27647  Biso  1.000  O
O3    1.0000 0.66667  0.33333  0.44314  Biso  1.000  O
O4    1.0000 0.00000  0.00000  0.60980  Biso  1.000  O
O5    1.0000 0.33333  0.66667  0.77647  Biso  1.000  O
O6    1.0000 0.66667  0.33333  0.94314  Biso  1.000  O
O7    1.0000 0.00000  0.00000  0.39020  Biso  1.000  O
O8    1.0000 0.33333  0.66667  0.05686  Biso  1.000  O
O9    1.0000 0.66667  0.33333  0.22353  Biso  1.000  O
O10   1.0000 0.00000  0.00000  0.89020  Biso  1.000  O
O11   1.0000 0.33333  0.66667  0.55686  Biso  1.000  O
O12   1.0000 0.66667  0.33333  0.72353  Biso  1.000  O 