##CIF_1.1

data_sm_global
#Used dictionaries
loop_
_audit_conform_dict_name
_audit_conform_dict_version
_audit_conform_dict_location
cif_core.dic 	2.4.2 	.
cif_pd.dic 		1.0.1 	.
cif_sm.dic 		0.1 	'redaktion.landolt-boernstein(at)springer.com'

#About this content and reference
_sm_credits_copyright
;PAULING FILE Multinaries Edition - 2012. SpringerMaterials Release 2014.
http://www.paulingfile.com
Unique LPF ID Number SD1242754
Project Coordinator: Shuichi Iwata
Section-Editors: Karin Cenzual (Crystal Structures), Hiroaki Okamoto (Phase 
Diagrams), Fritz Hulliger (Physical Properties)
(c) Springer & Material Phases Data System (MPDS), Switzerland & National 
Institute for Materials Science (NIMS), Japan 2014.
(Data generated pre-2002: (c) Springer & MPDS & NIMS; 
post-2001: (c) Springer & MPDS)
All Rights Reserved. Version 2014.06.
;

_audit_creation_method
;This data have been compiled from the crystallographic datasheet for 
"LiNi0.8Co0.15Al0.05O2 (LiCo0.15Ni0.7Al0.15O2) Crystal Structure" 
taken from SpringerMaterials (sm_isp_sd_1242754).
;

_publ_section_references
;Xie H., Du K., Hu G., Peng Z., Cao Y.: <i>The role of sodium in LiNi<sub>0.8</sub>Co<sub>0.15</sub>Al<sub>0.05</sub>O<sub>2</sub> cathode material and its electrochemical behaviors</i>. Journal of Physical Chemistry C. Nanomaterials, Interfaces, Hard Matter <b>120</b> (2016) 3235-3241.
;

#Phase classification
_sm_phase_labels				'LiCo0.15Ni0.7Al0.15O2'
_chemical_name_mineral			''
_sm_chemical_compound_class		'oxide'
_sm_phase_prototype				'NaFeO2 '
_sm_pearson_symbol				'hR12'
_symmetry_Int_Tables_number		166
_sm_sample_details
;sample prepared from Li<sub>0.8</sub>Co<sub>0.15</sub>Al<sub>0.05</sub>[OH]<sub>2</sub>, LiOH[H<sub>2</sub>O], 
powder (determination of cell parameters)
;
_sm_measurement_details
;automatic diffractometer (determination of cell parameters), 
X-rays, Cu K&#x03b1;<sub>1</sub> (determination of cell parameters)
;
_sm_interpretation_details
;cell parameters determined and structure type assigned
;

data_sm_isp_SD1242754-standardized_unitcell
#Cell Parameters
_cell_length_a					2.8636
_cell_length_b					2.8636
_cell_length_c					14.1756
_cell_angle_alpha				90
_cell_angle_beta				90
_cell_angle_gamma				120
_sm_length_ratio_ab				1.000
_sm_length_ratio_bc				0.202
_sm_length_ratio_ca				4.950
_cell_volume 					100.7
_symmetry_space_group_name_H-M	'R-3m'
_symmetry_Int_Tables_number		166
_cell_formula_units_Z			3
_sm_cell_transformation
;No transformation from published to standardized cell parameters necessary.
;

#Atom Coordinates
loop_
_atom_site_label
_atom_site_type_symbol
_atom_site_Wyckoff_symbol
_sm_site_symmetry
_atom_site_fract_x
_atom_site_fract_y
_atom_site_fract_z
_atom_site_occupancy
_sm_coordination_number
_sm_atomic_environment_type
O1 'O' .6c .3m 0 0 0.231 1 ? '?'
M1 '0.800Ni + 0.150Co + 0.050Al' .3b .-3m 0 0 0.5 1 ? '?'
Li1 'Li' .3a .-3m 0 0 0 1 ? '?'

_sm_atom_site_transformation
;No transformation from published to standardized cell parameters necessary.
Atom coordinates assigned by editor.
;

data_sm_isp_SD1242754-published_cell
#Cell Parameters
_cell_length_a					2.863639
_cell_length_b					2.863639
_cell_length_c					14.175582
_cell_angle_alpha				90
_cell_angle_beta				90
_cell_angle_gamma				120
_sm_length_ratio_ab				1.000
_sm_length_ratio_bc				0.202
_sm_length_ratio_ca				4.950
_cell_volume 					100.67
_symmetry_space_group_name_H-M	'R-3m'
_symmetry_Int_Tables_number		166
_cell_formula_units_Z			3

#Atom Coordinates
loop_
_atom_site_label
_atom_site_type_symbol
_atom_site_Wyckoff_symbol
_sm_site_symmetry
_atom_site_fract_x
_atom_site_fract_y
_atom_site_fract_z
_atom_site_occupancy
_sm_coordination_number
_sm_atomic_environment_type
? ? ? ? ? ? ? ? ? ?

data_sm_isp_SD1242754-niggli_reduced_cell
#Cell Parameters
_cell_length_a					2.8636
_cell_length_b					2.8636
_cell_length_c					5.0061
_cell_angle_alpha				73.381
_cell_angle_beta				73.381
_cell_angle_gamma				60
_sm_length_ratio_ab				1.000
_sm_length_ratio_bc				0.572
_sm_length_ratio_ca				1.748
_cell_volume 					33.56
_symmetry_space_group_name_H-M	''
_symmetry_Int_Tables_number		?
_cell_formula_units_Z			3

#Atom Coordinates
loop_
_atom_site_label
_atom_site_type_symbol
_atom_site_Wyckoff_symbol
_sm_site_symmetry
_atom_site_fract_x
_atom_site_fract_y
_atom_site_fract_z
_atom_site_occupancy
_sm_coordination_number
_sm_atomic_environment_type
? ? ? ? ? ? ? ? ? ?

