# NCA Li vacancy structure - lunazhang 2023
data_Li3Al0.15Co0.45Ni2.4O6
_symmetry_space_group_name_H-M   'P 1'
_cell_length_a   2.86360000
_cell_length_b   4.63162439
_cell_length_c   14.17560000
_cell_angle_alpha   90.00000000
_cell_angle_beta   90.00000000
_cell_angle_gamma   147.62634087
_symmetry_Int_Tables_number   1
_chemical_formula_structural   Li3Al0.15Co0.45Ni2.4O6
_chemical_formula_sum   'Li3 Al0.15 Co0.45 Ni2.4 O6'
_cell_volume   100.66923983
_cell_formula_units_Z   1
loop_
 _symmetry_equiv_pos_site_id
 _symmetry_equiv_pos_as_xyz
  1  'x, y, z'
loop_
 _atom_site_type_symbol
 _atom_site_label
 _atom_site_symmetry_multiplicity
 _atom_site_fract_x
 _atom_site_fract_y
 _atom_site_fract_z
 _atom_site_occupancy
  Li  Li1  1  0.33333333  0.66666667  0.66666667  1.0
  Li  Li1  1  0.00000000  0.00000000  0.00000000  1.0
  Li  Li1  1  0.66666667  0.33333333  0.33333333  1.0
  Al  Al_fix2  1  0.33333333  0.66666667  0.16666667  0.05
  Co  Al_fix2  1  0.33333333  0.66666667  0.16666667  0.15
  Ni  Al_fix2  1  0.33333333  0.66666667  0.16666667  0.8
  Al  Al_fix2  1  0.00000000  0.00000000  0.50000000  0.05
  Co  Al_fix2  1  0.00000000  0.00000000  0.50000000  0.15
  Ni  Al_fix2  1  0.00000000  0.00000000  0.50000000  0.8
  Al  Al_fix2  1  0.66666667  0.33333333  0.83333333  0.05
  Co  Al_fix2  1  0.66666667  0.33333333  0.83333333  0.15
  Ni  Al_fix2  1  0.66666667  0.33333333  0.83333333  0.8
  O  O1  1  0.33333333  0.66666667  0.89766667  1.0
  O  O1  1  0.00000000  0.00000000  0.23100000  1.0
  O  O1  1  0.66666667  0.33333333  0.56433333  1.0
  O  O1  1  0.00000000  0.00000000  0.76900000  1.0
  O  O1  1  0.33333333  0.66666667  0.43566667  1.0
  O  O1  1  0.66666667  0.33333333  0.10233333  1.0
